.SUBCKT 2_PORT_TEST 1 2
R1N 1 10 -50
R1P 10 11 100
R2N 2 20 -50
R2P 20 21 100

*S11 FREQ DB PHASE
E11 11 12 FREQ {V(10, 0)}= DB
+ (20000000.0, -7.219958553840746, 3.1359492842820584)
+ (29998999.89999, -7.220311074677022, 3.133127928817248)
+ (39997999.79998, -7.220634324330942, 3.1303065832342765)
+ (49996999.69997, -7.220945420514758, 3.1274852385638057)
+ (59995999.59996, -7.221253126540813, 3.124663887518095)
+ (69994999.49994999, -7.221562639409004, 3.121842523787824)
+ (79993999.39994, -7.221877339858983, 3.119021141704116)
+ (89992999.29993, -7.222199572677957, 3.1161997360506835)
+ (99991999.19992, -7.22253104276811, 3.113378301948831)
+ (109990999.09990999, -7.2228730356176305, 3.1105568347820225)
+ (119989998.9999, -7.223226548852299, 3.1077353301437305)
+ (129988998.89989, -7.2235923751144595, 3.1049137837998764)
+ (139987998.79988, -7.223971156613496, 3.102092191660868)
+ (149986998.69987, -7.224363422348512, 3.099270549760209)
+ (159985998.59986, -7.224769614287236, 3.0964488542377584)
+ (169984998.49985, -7.225190106257778, 3.0936271013263674)
+ (179983998.39984, -7.225625217887272, 3.0908052873410425)
+ (189982998.29983, -7.2260752250870866, 3.0879834086700204)
+ (199981998.19981998, -7.22654036807513, 3.0851614617673278)
+ (209980998.09981, -7.227020857606913, 3.0823394431465085)
+ (219979997.9998, -7.2275168798808656, 3.079517349375281)
+ (229978997.89979, -7.228028600446984, 3.0766951770709468)
+ (239977997.79978, -7.228556167355174, 3.0738729228964123)
+ (249976997.69977, -7.2290997137165345, 3.071050583556722)
+ (259975997.59976, -7.229659359806096, 3.0682281557960067)
+ (269974997.49975, -7.230235214803126, 3.065405636394791)
+ (279973997.39974, -7.23082737824254, 3.0625830221675994)
+ (289972997.29973, -7.231435941234143, 3.0597603099608173)
+ (299971997.19972, -7.232060987493098, 3.0569374966507747)
+ (309970997.09971, -7.232702594216208, 3.054114579142013)
+ (319969996.9997, -7.233360832831698, 3.0512915543657226)
+ (329968996.89969, -7.234035769643247, 3.048468419278321)
+ (339967996.79968, -7.234727466386742, 3.0456451708601566)
+ (349966996.69967, -7.235435980713437, 3.0428218061143233)
+ (359965996.59966, -7.2361613666107, 3.0399983220655744)
+ (369964996.49965, -7.236903674770767, 3.037174715759322)
+ (379963996.39963996, -7.23766295291404, 3.0343509842607146)
+ (389962996.29963, -7.238439246074759, 3.0315271246537856)
+ (399961996.19962, -7.239232596853107, 3.02870313404066)
+ (409960996.09961, -7.240043045639403, 3.0258790095408234)
+ (419959995.9996, -7.240870630813296, 3.023054748290434)
+ (429958995.89959, -7.241715388922005, 3.0202303474416894)
+ (439957995.79958, -7.242577354839509, 3.017405804162226)
+ (449956995.69957, -7.243456561909567, 3.014581115634563)
+ (459955995.59956, -7.244353042074566, 3.011756279055579)
+ (469954995.49955, -7.245266825991514, 3.00893129163602)
+ (479953995.39954, -7.246197943136961, 3.006106150600033)
+ (489952995.29952997, -7.247146421902223, 3.003280853184736)
+ (499951995.19952, -7.248112289679608, 3.0004553966398007)
+ (509950995.09951, -7.249095572940991, 2.997629778227066)
+ (519949994.9995, -7.250096297309493, 2.9948039952201704)
+ (529948994.89949, -7.251114487624721, 2.9919780449042017)
+ (539947994.79948, -7.252150168002741, 2.9891519245753666)
+ (549946994.69947, -7.253203361890824, 2.9863256315406783)
+ (559945994.59946, -7.254274092117728, 2.9834991631176555)
+ (569944994.49945, -7.255362380939997, 2.9806725166340398)
+ (579943994.39944, -7.256468250084666, 2.977845689427524)
+ (589942994.29943, -7.257591720788338, 2.9750186788454966)
+ (599941994.19942, -7.258732813833586, 2.972191482244792)
+ (609940994.0994099, -7.25989154958258, 2.969364096991459)
+ (619939993.9994, -7.261067948007992, 2.966536520460532)
+ (629938993.89939, -7.262262028721836, 2.96370875003582)
+ (639937993.79938, -7.263473811002344, 2.9608807831096975)
+ (649936993.69937, -7.264703313818648, 2.9580526170829096)
+ (659935993.59936, -7.26595055585401, 2.9552242493643806)
+ (669934993.49935, -7.267215555527349, 2.952395677371033)
+ (679933993.39934, -7.268498331013308, 2.9495668985276153)
+ (689932993.29933, -7.269798900261069, 2.946737910266531)
+ (699931993.19932, -7.271117281011902, 2.9439087100276797)
+ (709930993.09931, -7.2724534908155025, 2.941079295258302)
+ (719929992.9993, -7.273807547045416, 2.938249663412829)
+ (729928992.89929, -7.275179466913442, 2.9354198119527397)
+ (739927992.7992799, -7.276569267483145, 2.9325897383464232)
+ (749926992.69927, -7.277976965682531, 2.929759440069043)
+ (759925992.59926, -7.279402578316031, 2.92692891460241)
+ (769924992.4992499, -7.280846122075694, 2.9240981594348567)
+ (779923992.39924, -7.282307613551762, 2.921267172061119)
+ (789922992.29923, -7.283787069242715, 2.9184359499822183)
+ (799921992.19922, -7.28528450556445, 2.9156044907053498)
+ (809920992.09921, -7.2867999388594615, 2.9127727917437753)
+ (819919991.9992, -7.288333385404955, 2.9099408506167164)
+ (829918991.89919, -7.28988486142099, 2.9071086648492535)
+ (839917991.79918, -7.2914543830777845, 2.9042762319722284)
+ (849916991.69917, -7.29304196650292, 2.9014435495221487)
+ (859915991.59916, -7.294647627788086, 2.898610615041094)
+ (869914991.49915, -7.296271382995357, 2.8957774260766285)
+ (879913991.39914, -7.297913248163316, 2.8929439801817125)
+ (889912991.29913, -7.299573239312831, 2.8901102749146195)
+ (899911991.19912, -7.301251372452468, 2.887276307838855)
+ (909910991.09911, -7.302947663583565, 2.884442076523074)
+ (919909990.9991, -7.304662128705441, 2.8816075785410087)
+ (929908990.8990899, -7.306394783819817, 2.8787728114713897)
+ (939907990.79908, -7.308145644935422, 2.8759377728978754)
+ (949906990.69907, -7.309914728072267, 2.8731024604089814)
+ (959905990.5990599, -7.311702049265698, 2.870266871598011)
+ (969904990.49905, -7.313507624570169, 2.8674310040629885)
+ (979903990.39904, -7.315331470063158, 2.8645948554065948)
+ (989902990.29903, -7.317173601848519, 2.861758423236105)
+ (999901990.19902, -7.319034036059946, 2.8589217051633242)
+ (1009900990.09901, -7.320912788864161, 2.8560846988045303)
+ (1019899989.999, -7.322809876464063, 2.8532474017804152)
+ (1029898989.89899, -7.324725315101663, 2.8504098117160264)
+ (1039897989.79898, -7.326659121060938, 2.8475719262407138)
+ (1049896989.69897, -7.328611310670539, 2.844733742988075)
+ (1059895989.5989599, -7.330581900306344, 2.8418952595959017)
+ (1069894989.49895, -7.332570906394049, 2.83905647370613)
+ (1079893989.39894, -7.33457834541154, 2.8362173829647905)
+ (1089892989.29893, -7.3366042338911805, 2.833377985021958)
+ (1099891989.19892, -7.33864858842202, 2.830538277531705)
+ (1109890989.09891, -7.340711425651959, 2.8276982581520564)
+ (1119889988.9989, -7.342792762289769, 2.8248579245449426)
+ (1129888988.89889, -7.34489261510708, 2.822017274376156)
+ (1139887988.79888, -7.347011000940295, 2.8191763053153074)
+ (1149886988.69887, -7.349147936692294, 2.816335015035785)
+ (1159885988.59886, -7.3513034393344245, 2.813493401214713)
+ (1169884988.4988499, -7.353477525907972, 2.8106514615329106)
+ (1179883988.39884, -7.355670213525927, 2.8078091936748524)
+ (1189882988.29883, -7.357881519374541, 2.8049665953286333)
+ (1199881988.1988199, -7.36011146071481, 2.802123664185927)
+ (1209880988.09881, -7.362360054884044, 2.7992803979419514)
+ (1219879987.9988, -7.364627319297053, 2.796436794295433)
+ (1229878987.89879, -7.366913271447912, 2.7935928509485706)
+ (1239877987.79878, -7.369217928910921, 2.790748565607003)
+ (1249876987.69877, -7.37154130934209, 2.7879039359797724)
+ (1259875987.59876, -7.373883430480344, 2.7850589597792967)
+ (1269874987.49875, -7.376244310148672, 2.7822136347213324)
+ (1279873987.39874, -7.3786239662554305, 2.7793679585249453)
+ (1289872987.29873, -7.381022416795285, 2.7765219289124805)
+ (1299871987.19872, -7.383439679850444, 2.77367554360953)
+ (1309870987.09871, -7.385875773591791, 2.770828800344908)
+ (1319869986.9987, -7.38833071627968, 2.7679816968506157)
+ (1329868986.89869, -7.3908045262651765, 2.7651342308618183)
+ (1339867986.79868, -7.393297221990864, 2.762286400116815)
+ (1349866986.69867, -7.395808821991881, 2.7594382023570123)
+ (1359865986.59866, -7.398339344896843, 2.756589635326898)
+ (1369864986.49865, -7.400888809428713, 2.753740696774015)
+ (1379863986.39864, -7.4034572344056, 2.750891384448934)
+ (1389862986.29863, -7.4060446387417755, 2.7480416961052327)
+ (1399861986.19862, -7.4086510414483815, 2.745191629499467)
+ (1409860986.09861, -7.4112764616341975, 2.74234118239115)
+ (1419859985.9986, -7.413920918506523, 2.7394903525427265)
+ (1429858985.89859, -7.416584431371966, 2.736639137719551)
+ (1439857985.79858, -7.419267019636953, 2.7337875356898653)
+ (1449856985.69857, -7.42196870280881, 2.730935544224777)
+ (1459855985.5985599, -7.4246895004961395, 2.7280831610982337)
+ (1469854985.49855, -7.427429432409717, 2.725230384087007)
+ (1479853985.39854, -7.430188518363124, 2.7223772109706683)
+ (1489852985.2985299, -7.432966778273392, 2.7195236395315696)
+ (1499851985.19852, -7.435764232161627, 2.716669667554821)
+ (1509850985.09851, -7.438580900153621, 2.7138152928282757)
+ (1519849984.9984999, -7.441416802480607, 2.710960513142505)
+ (1529848984.89849, -7.444271959479732, 2.7081053262907826)
+ (1539847984.79848, -7.4471463915946075, 2.705249730069065)
+ (1549846984.6984699, -7.45004011937612, 2.702393722275972)
+ (1559845984.59846, -7.452953163482739, 2.699537300712771)
+ (1569844984.49845, -7.455885544681217, 2.6966804631833563)
+ (1579843984.39844, -7.458837283847122, 2.6938232074942348)
+ (1589842984.29843, -7.461808401965327, 2.690965531454505)
+ (1599841984.19842, -7.464798920130562, 2.6881074328758436)
+ (1609840984.09841, -7.467808859547968, 2.6852489095724863)
+ (1619839983.9984, -7.470838241533554, 2.6823899593612146)
+ (1629838983.89839, -7.4738870875146945, 2.679530580061336)
+ (1639837983.79838, -7.476955419030667, 2.676670769494669)
+ (1649836983.69837, -7.4800432577331, 2.6738105254855324)
+ (1659835983.59836, -7.483150625386457, 2.6709498458607204)
+ (1669834983.49835, -7.486277543868467, 2.6680887284494985)
+ (1679833983.39834, -7.489424035170669, 2.6652271710835804)
+ (1689832983.29833, -7.492590121398781, 2.6623651715971173)
+ (1699831983.19832, -7.495775824773187, 2.659502727826683)
+ (1709830983.09831, -7.498981167629328, 2.6566398376112583)
+ (1719829982.9983, -7.502206172418255, 2.65377649879222)
+ (1729828982.89829, -7.505450861706905, 2.650912709213323)
+ (1739827982.79828, -7.508715258178656, 2.648048466720692)
+ (1749826982.69827, -7.511999384633591, 2.6451837691628026)
+ (1759825982.59826, -7.515303263989112, 2.642318614390472)
+ (1769824982.49825, -7.518626919280127, 2.639453000256847)
+ (1779823982.39824, -7.521970373659631, 2.636586924617387)
+ (1789822982.29823, -7.525333650398979, 2.633720385329853)
+ (1799821982.19822, -7.528716772888373, 2.6308533802542984)
+ (1809820982.0982099, -7.532119764637185, 2.627985907253053)
+ (1819819981.9982, -7.535542649274315, 2.6251179641907116)
+ (1829818981.89819, -7.538985450548705, 2.6222495489341244)
+ (1839817981.7981799, -7.542448192329533, 2.6193806593523816)
+ (1849816981.69817, -7.54593089860675, 2.6165112933168055)
+ (1859815981.59816, -7.549433593491309, 2.613641448700936)
+ (1869814981.4981499, -7.55295630121565, 2.610771123380522)
+ (1879813981.39814, -7.556499046134007, 2.6079003152335076)
+ (1889812981.29813, -7.5600618527227255, 2.6050290221400223)
+ (1899811981.1981199, -7.563644745580708, 2.6021572419823715)
+ (1909810981.09811, -7.567247749429661, 2.599284972645023)
+ (1919809980.9981, -7.570870889114606, 2.5964122120145983)
+ (1929808980.89809, -7.574514189604027, 2.593538957979862)
+ (1939807980.79808, -7.5781776759904105, 2.590665208431708)
+ (1949806980.69807, -7.581861373490409, 2.587790961263156)
+ (1959805980.59806, -7.585565307445311, 2.5849162143693354)
+ (1969804980.49805, -7.589289503321352, 2.582040965647477)
+ (1979803980.39804, -7.593033986710055, 2.5791652129969043)
+ (1989802980.29803, -7.596798783328485, 2.5762889543190197)
+ (1999801980.19802, -7.6005839190197015, 2.573412187517302)
+ (2009800980.09801, -7.604389419753009, 2.570534910497287)
+ (2019799979.998, -7.608215311624353, 2.567657121166568)
+ (2029798979.89799, -7.612061620856599, 2.564778817434778)
+ (2039797979.79798, -7.615928373799877, 2.561899997213584)
+ (2049796979.69797, -7.619815596931864, 2.5590206584166793)
+ (2059795979.59796, -7.6237233168582215, 2.5561407989597704)
+ (2069794979.49795, -7.627651560312819, 2.55326041676057)
+ (2079793979.39794, -7.631600354158056, 2.5503795097387867)
+ (2089792979.29793, -7.63556972538527, 2.5474980758161183)
+ (2099791979.1979198, -7.639559701114974, 2.544616112916239)
+ (2109790979.09791, -7.64357030859726, 2.5417336189647948)
+ (2119789978.9979, -7.647601575211959, 2.5388505918893904)
+ (2129788978.8978899, -7.651653528469141, 2.5359670296195835)
+ (2139787978.79788, -7.655726196009382, 2.533082930086876)
+ (2149786978.6978703, -7.659819605604044, 2.530198291224701)
+ (2159785978.59786, -7.663933785155544, 2.5273131109684206)
+ (2169784978.49785, -7.668068762697868, 2.524427387255312)
+ (2179783978.39784, -7.672224566396617, 2.5215411180245613)
+ (2189782978.29783, -7.676401224549544, 2.5186543012172553)
+ (2199781978.19782, -7.680598765586808, 2.5157669347763716)
+ (2209780978.09781, -7.684817218071208, 2.512879016646771)
+ (2219779977.9978, -7.689056610698621, 2.5099905447751887)
+ (2229778977.89779, -7.693316972298242, 2.5071015171102258)
+ (2239777977.79778, -7.697598331832899, 2.5042119316023412)
+ (2249776977.69777, -7.701900718399419, 2.501321786203846)
+ (2259775977.59776, -7.706224161228907, 2.4984310788688875)
+ (2269774977.49775, -7.710568689687082, 2.4955398075534503)
+ (2279773977.39774, -7.714934333274536, 2.492647970215339)
+ (2289772977.29773, -7.719321121627187, 2.4897555648141805)
+ (2299771977.19772, -7.723729084516455, 2.4868625893114054)
+ (2309770977.09771, -7.728158251849595, 2.4839690416702447)
+ (2319769976.9976997, -7.732608653670143, 2.4810749198557223)
+ (2329768976.89769, -7.737080320158043, 2.4781802218346436)
+ (2339767976.79768, -7.741573281630152, 2.475284945575592)
+ (2349766976.69767, -7.746087568540457, 2.4723890890489155)
+ (2359765976.59766, -7.75062321148039, 2.469492650226722)
+ (2369764976.49765, -7.7551802411792, 2.46659562708287)
+ (2379763976.3976398, -7.759758688504228, 2.4636980175929595)
+ (2389762976.29763, -7.764358584461263, 2.4607998197343273)
+ (2399761976.19762, -7.76897996019485, 2.4579010314860326)
+ (2409760976.09761, -7.7736228469885935, 2.455001650828855)
+ (2419759975.9976, -7.778287276265553, 2.4521016757452827)
+ (2429758975.89759, -7.782973279588492, 2.4492011042195063)
+ (2439757975.79758, -7.787680888660223, 2.446299934237407)
+ (2449756975.69757, -7.792410135323959, 2.4433981637865543)
+ (2459755975.59756, -7.797161051563615, 2.440495790856192)
+ (2469754975.49755, -7.801933669504173, 2.437592813437231)
+ (2479753975.39754, -7.806728021411998, 2.4346892295222453)
+ (2489752975.29753, -7.811544139695111, 2.431785037105458)
+ (2499751975.19752, -7.816382056903631, 2.4288802341827362)
+ (2509750975.09751, -7.821241805730002, 2.4259748187515817)
+ (2519749974.9975, -7.82612341900945, 2.4230687888111233)
+ (2529748974.89749, -7.831026929720125, 2.4201621423621047)
+ (2539747974.79748, -7.835952370983684, 2.417254877406883)
+ (2549746974.69747, -7.840899776065445, 2.4143469919494134)
+ (2559745974.59746, -7.845869178374809, 2.411438483995244)
+ (2569744974.49745, -7.850860611465535, 2.4085293515515054)
+ (2579743974.39744, -7.855874109036204, 2.405619592626905)
+ (2589742974.29743, -7.860909704930442, 2.4027092052317163)
+ (2599741974.19742, -7.865967433137321, 2.399798187377767)
+ (2609740974.0974097, -7.871047327791673, 2.396886537078438)
+ (2619739973.9974, -7.876149423174519, 2.393974252348645)
+ (2629738973.89739, -7.881273753713325, 2.3910613312048397)
+ (2639737973.79738, -7.886420353982459, 2.3881477716649924)
+ (2649736973.69737, -7.891589258703298, 2.385233571748585)
+ (2659735973.59736, -7.896780502745001, 2.3823187294766077)
+ (2669734973.4973497, -7.901994121124477, 2.379403242871541)
+ (2679733973.39734, -7.907230149006948, 2.376487109957352)
+ (2689732973.29733, -7.912488621706241, 2.3735703287594854)
+ (2699731973.19732, -7.9177695746851615, 2.3706528973048506)
+ (2709730973.09731, -7.923073043555895, 2.3677348136218166)
+ (2719729972.9973, -7.9283990640802955, 2.3648160757401984)
+ (2729728972.8972898, -7.933747672170326, 2.3618966816912494)
+ (2739727972.79728, -7.939118903888408, 2.3589766295076533)
+ (2749726972.69727, -7.944512795447745, 2.3560559172235127)
+ (2759725972.59726, -7.949929383212786, 2.3531345428743378)
+ (2769724972.49725, -7.9553687036994605, 2.3502125044970383)
+ (2779723972.39724, -7.960830793575742, 2.347289800129917)
+ (2789722972.29723, -7.966315689661883, 2.3443664278126506)
+ (2799721972.19722, -7.971823428930838, 2.34144238558629)
+ (2809720972.09721, -7.977354048508704, 2.3385176714932427)
+ (2819719971.9972, -7.98290758567491, 2.3355922835772667)
+ (2829718971.89719, -7.988484077862918, 2.332666219883456)
+ (2839717971.79718, -7.994083562660323, 2.3297394784582375)
+ (2849716971.69717, -7.999706077809431, 2.3268120573493487)
+ (2859715971.59716, -8.005351661207543, 2.323883954605841)
+ (2869714971.49715, -8.011020350907398, 2.3209551682780574)
+ (2879713971.39714, -8.016712185117521, 2.318025696417626)
+ (2889712971.29713, -8.022427202202776, 2.315095537077452)
+ (2899711971.1971197, -8.028165440684585, 2.312164688311704)
+ (2909710971.09711, -8.033926939241399, 2.3092331481757995)
+ (2919709970.9971, -8.0397117367091, 2.306300914726399)
+ (2929708970.89709, -8.045519872081467, 2.303367986021391)
+ (2939707970.79708, -8.051351384510562, 2.3004343601198824)
+ (2949706970.69707, -8.057206313307057, 2.297500035082189)
+ (2959705970.5970597, -8.063084697940775, 2.2945650089698164)
+ (2969704970.49705, -8.068986578040986, 2.291629279845455)
+ (2979703970.39704, -8.074911993397029, 2.2886928457729683)
+ (2989702970.29703, -8.080860983958448, 2.2857557048173733)
+ (2999701970.19702, -8.086833589835681, 2.2828178550448377)
+ (3009700970.09701, -8.09282985130032, 2.2798792945226607)
+ (3019699969.9969997, -8.098849808785655, 2.276940021319265)
+ (3029698969.89699, -8.104893502887077, 2.2740000335041786)
+ (3039697969.79698, -8.110960974362346, 2.271059329148029)
+ (3049696969.69697, -8.117052264132411, 2.2681179063225243)
+ (3059695969.59696, -8.123167413281465, 2.265175763100446)
+ (3069694969.49695, -8.129306463057599, 2.2622328975556285)
+ (3079693969.3969398, -8.135469454873181, 2.2592893077629537)
+ (3089692969.29693, -8.141656430305341, 2.2563449917983314)
+ (3099691969.19692, -8.147867431096419, 2.2533999477386866)
+ (3109690969.09691, -8.15410249915443, 2.250454173661949)
+ (3119689968.9969, -8.160361676553403, 2.2475076676470387)
+ (3129688968.89689, -8.166645005534086, 2.244560427773847)
+ (3139687968.79688, -8.172952528504188, 2.2416124521232272)
+ (3149686968.69687, -8.179284288038936, 2.2386637387769803)
+ (3159685968.59686, -8.185640326881533, 2.2357142858178367)
+ (3169684968.49685, -8.192020687943662, 2.232764091329445)
+ (3179683968.39684, -8.198425414305962, 2.2298131533963534)
+ (3189682968.29683, -8.20485454921844, 2.226861470104)
+ (3199681968.19682, -8.211308136100996, 2.2239090395386945)
+ (3209680968.09681, -8.217786218543942, 2.2209558597876007)
+ (3219679967.9968, -8.224288840308432, 2.218001928938724)
+ (3229678967.89679, -8.230816045327042, 2.215047245080896)
+ (3239677967.79678, -8.237367877704148, 2.2120918063037553)
+ (3249676967.6967697, -8.243944381716489, 2.209135610697736)
+ (3259675967.59676, -8.250545601813736, 2.2061786563540458)
+ (3269674967.49675, -8.25717158261883, 2.203220941364656)
+ (3279673967.39674, -8.263822368928647, 2.2002624638222796)
+ (3289672967.29673, -8.270498005714424, 2.197303221820354)
+ (3299671967.19672, -8.277198538122333, 2.1943432134530303)
+ (3309670967.0967097, -8.28392401147397, 2.191382436815151)
+ (3319669966.9967, -8.29067447126678, 2.188420890002229)
+ (3329668966.89669, -8.297449963174817, 2.1854585711104413)
+ (3339667966.79668, -8.304250533049032, 2.1824954782366)
+ (3349666966.69667, -8.311076226917987, 2.179531609478138)
+ (3359665966.59666, -8.317927090988242, 2.176566962933093)
+ (3369664966.4966497, -8.324803171644986, 2.173601536700088)
+ (3379663966.39664, -8.331704515452579, 2.1706353288783076)
+ (3389662966.29663, -8.338631169155102, 2.167668337567489)
+ (3399661966.19662, -8.345583179676801, 2.164700560867891)
+ (3409660966.09661, -8.352560594122826, 2.161731996880286)
+ (3419659965.9966, -8.359563459779594, 2.15876264370593)
+ (3429658965.8965898, -8.366591824115549, 2.155792499446556)
+ (3439657965.79658, -8.373645734781544, 2.152821562204334)
+ (3449656965.69657, -8.380725239611532, 2.1498498300818727)
+ (3459655965.59656, -8.38783038662307, 2.146877301182183)
+ (3469654965.49655, -8.394961224017988, 2.143903973608667)
+ (3479653965.39654, -8.402117800182793, 2.1409298454650885)
+ (3489652965.29653, -8.409300163689545, 2.1379549148555603)
+ (3499651965.19652, -8.416508363296124, 2.134979179884516)
+ (3509650965.09651, -8.423742447946974, 2.13200263865669)
+ (3519649964.9965, -8.431002466773828, 2.1290252892771013)
+ (3529648964.89649, -8.438288469096047, 2.1260471298510195)
+ (3539647964.79648, -8.445600504421407, 2.1230681584839526)
+ (3549646964.69647, -8.452938622446677, 2.120088373281622)
+ (3559645964.59646, -8.460302873058183, 2.1171077723499323)
+ (3569644964.49645, -8.467693306332535, 2.114126353794961)
+ (3579643964.39644, -8.475109972537071, 2.111144115722923)
+ (3589642964.29643, -8.482552922130594, 2.10816105624015)
+ (3599641964.1964197, -8.490022205764104, 2.1051771734530713)
+ (3609640964.09641, -8.497517874281266, 2.1021924654681827)
+ (3619639963.9964, -8.505039978719054, 2.099206930392026)
+ (3629638963.89639, -8.512588570308589, 2.0962205663311644)
+ (3639637963.79638, -8.520163700475509, 2.09323337139215)
+ (3649636963.69637, -8.527765420840831, 2.0902453436815085)
+ (3659635963.5963597, -8.535393783221599, 2.0872564813057073)
+ (3669634963.49635, -8.543048839631457, 2.0842667823711287)
+ (3679633963.39634, -8.550730642281254, 2.0812762449840463)
+ (3689632963.29633, -8.558439243579949, 2.0782848672505967)
+ (3699631963.19632, -8.566174696135144, 2.0752926472767528)
+ (3709630963.09631, -8.57393705275367, 2.072299583168295)
+ (3719629962.9962997, -8.581726366442542, 2.0693056730307866)
+ (3729628962.89629, -8.589542690409345, 2.066310914969541)
+ (3739627962.79628, -8.597386078063172, 2.063315307089597)
+ (3749626962.69627, -8.605256583015201, 2.060318847495692)
+ (3759625962.59626, -8.613154259079394, 2.0573215342922233)
+ (3769624962.49625, -8.621079160273338, 2.054323365583231)
+ (3779623962.3962398, -8.629031340818731, 2.0513243394723584)
+ (3789622962.29623, -8.637010855142389, 2.048324454062829)
+ (3799621962.19622, -8.645017757876786, 2.045323707457412)
+ (3809620962.09621, -8.653052103860762, 2.04232209775839)
+ (3819619961.9962, -8.66111394814043, 2.0393196230675352)
+ (3829618961.89619, -8.669203345969708, 2.036316281486069)
+ (3839617961.79618, -8.677320352811291, 2.033312071114637)
+ (3849616961.69617, -8.685465024337187, 2.030306990053268)
+ (3859615961.59616, -8.693637416429667, 2.0273010364013557)
+ (3869614961.49615, -8.701837585181906, 2.0242942082576114)
+ (3879613961.39614, -8.71006558689877, 2.0212865037200376)
+ (3889612961.2961297, -8.718321478097641, 2.018277920885894)
+ (3899611961.19612, -8.726605315509149, 2.0152684578516604)
+ (3909610961.09611, -8.734917156078053, 2.012258112713008)
+ (3919609960.9961, -8.743257056963902, 2.009246883564755)
+ (3929608960.89609, -8.751625075541863, 2.006234768500843)
+ (3939607960.79608, -8.76002126940364, 2.0032217656142906)
+ (3949606960.6960697, -8.768445696358148, 2.0002078729971657)
+ (3959605960.59606, -8.776898414432425, 1.99719308874054)
+ (3969604960.49605, -8.785379481872384, 1.9941774109344634)
+ (3979603960.39604, -8.79388895714371, 1.9911608376679142)
+ (3989602960.29603, -8.80242689893265, 1.9881433670287714)
+ (3999601960.19602, -8.81099336614681, 1.9851249971037705)
+ (4009600960.0960097, -8.819588417916142, 1.9821057259784698)
+ (4019599959.996, -8.828212113593644, 1.979085551737203)
+ (4029598959.89599, -8.836864512756383, 1.9760644724630498)
+ (4039597959.79598, -8.845545675206155, 1.973042486237789)
+ (4049596959.69597, -8.854255660970535, 1.970019591141861)
+ (4059595959.59596, -8.862994530303666, 1.966995785254324)
+ (4069594959.4959497, -8.87176234368725, 1.963971066652815)
+ (4079593959.39594, -8.880559161831275, 1.96094543341351)
+ (4089592959.29593, -8.889385045675011, 1.9579188836110757)
+ (4099591959.19592, -8.898240056387978, 1.954891415318632)
+ (4109590959.09591, -8.907124255370757, 1.9518630266077084)
+ (4119589958.9959, -8.916037704255878, 1.9488337155481956)
+ (4129588958.8958898, -8.924980464908952, 1.9458034802083068)
+ (4139587958.79588, -8.933952599429363, 1.9427723186545296)
+ (4149586958.69587, -8.942954170151305, 1.939740228951582)
+ (4159585958.59586, -8.951985239644815, 1.9367072091623654)
+ (4169584958.49585, -8.961045870716587, 1.933673257347921)
+ (4179583958.3958397, -8.970136126411031, 1.9306383715673816)
+ (4189582958.29583, -8.979256070011276, 1.927602549877921)
+ (4199581958.19582, -8.988405765039907, 1.9245657903347109)
+ (4209580958.09581, -8.997585275260354, 1.9215280909908732)
+ (4219579957.9958, -9.006794664677447, 1.9184894498974239)
+ (4229578957.89579, -9.01603399753877, 1.9154498651032332)
+ (4239577957.7957797, -9.025303338335455, 1.9124093346549689)
+ (4249576957.69577, -9.034602751803318, 1.909367856597047)
+ (4259575957.59576, -9.043932302923809, 1.906325428971581)
+ (4269574957.49575, -9.05329205692508, 1.9032820498183325)
+ (4279573957.39574, -9.062682079282983, 1.9002377171746565)
+ (4289572957.29573, -9.072102435722197, 1.8971924290754476)
+ (4299571957.19572, -9.081553192217159, 1.8941461835530886)
+ (4309570957.09571, -9.091034414993258, 1.8910989786373968)
+ (4319569956.9957, -9.100546170527878, 1.8880508123555702)
+ (4329568956.89569, -9.110088525551408, 1.8850016827321248)
+ (4339567956.79568, -9.119661547048313, 1.8819515877888529)
+ (4349566956.69567, -9.129265302258414, 1.8789005255447493)
+ (4359565956.59566, -9.138899858677803, 1.8758484940159725)
+ (4369564956.49565, -9.14856528406004, 1.8727954912157703)
+ (4379563956.39564, -9.15826164641723, 1.869741515154432)
+ (4389562956.2956295, -9.16798901402123, 1.866686563839231)
+ (4399561956.19562, -9.177747455404731, 1.8636306352743521)
+ (4409560956.09561, -9.187537039362436, 1.8605737274608485)
+ (4419559955.9956, -9.197357834952172, 1.8575158383965629)
+ (4429558955.89559, -9.207209911496067, 1.8544569660760852)
+ (4439557955.79558, -9.21709333858185, 1.8513971084906742)
+ (4449556955.69557, -9.227008186063864, 1.8483362636282035)
+ (4459555955.59556, -9.236954524064325, 1.845274429473094)
+ (4469554955.49555, -9.246932422974586, 1.84221160400625)
+ (4479553955.39554, -9.256941953456229, 1.8391477852049976)
+ (4489552955.29553, -9.266983186442495, 1.836082971043015)
+ (4499551955.19552, -9.277056193139195, 1.8330171594902664)
+ (4509550955.09551, -9.287161045026336, 1.8299503485129394)
+ (4519549954.9955, -9.297297813859013, 1.8268825360733667)
+ (4529548954.89549, -9.30746657166901, 1.8238137201299731)
+ (4539547954.79548, -9.31766739076574, 1.8207438986371915)
+ (4549546954.69547, -9.327900343737838, 1.817673069545401)
+ (4559545954.59546, -9.338165503454185, 1.8146012308008508)
+ (4569544954.49545, -9.34846294306546, 1.811528380345599)
+ (4579543954.39544, -9.358792736005219, 1.8084545161174215)
+ (4589542954.29543, -9.369154955991444, 1.8053796360497603)
+ (4599541954.19542, -9.379549677027683, 1.8023037380716316)
+ (4609540954.09541, -9.389976973404524, 1.7992268201075605)
+ (4619539953.995399, -9.400436919700896, 1.7961488800775076)
+ (4629538953.89539, -9.410929590785493, 1.793069915896782)
+ (4639537953.79538, -9.421455061818092, 1.7899899254759728)
+ (4649536953.69537, -9.432013408250947, 1.786908906720871)
+ (4659535953.59536, -9.442604705830163, 1.7838268575323823)
+ (4669534953.49535, -9.453229030597381, 1.7807437758064604)
+ (4679533953.39534, -9.46388645889071, 1.777659659434013)
+ (4689532953.29533, -9.474577067346575, 1.7745745063008271)
+ (4699531953.19532, -9.485300932900977, 1.771488314287488)
+ (4709530953.09531, -9.496058132791063, 1.7684010812692916)
+ (4719529952.9953, -9.506848744556475, 1.765312805116164)
+ (4729528952.89529, -9.517672846040895, 1.762223483692573)
+ (4739527952.7952795, -9.528530515393586, 1.7591331148574467)
+ (4749526952.69527, -9.539421831070836, 1.7560416964640784)
+ (4759525952.59526, -9.550346871837492, 1.7529492263600492)
+ (4769524952.49525, -9.561305716768496, 1.749855702387132)
+ (4779523952.39524, -9.572298445250386, 1.7467611223811996)
+ (4789522952.29523, -9.583325136983058, 1.7436654841721435)
+ (4799521952.19522, -9.594385871981029, 1.7405687855837773)
+ (4809520952.09521, -9.60548073057525, 1.7374710244337357)
+ (4819519951.9952, -9.61660979341462, 1.7343721985333993)
+ (4829518951.89519, -9.627773141467557, 1.7312723056877752)
+ (4839517951.79518, -9.638970856023777, 1.728171343695428)
+ (4849516951.695169, -9.65020301869571, 1.7250693103483647)
+ (4859515951.59516, -9.661469711420413, 1.7219662034319425)
+ (4869514951.49515, -9.672771016460867, 1.718862020724766)
+ (4879513951.39514, -9.68410701640818, 1.7157567599985983)
+ (4889512951.29513, -9.695477794182679, 1.7126504190182463)
+ (4899511951.19512, -9.706883433036133, 1.709542995541468)
+ (4909510951.09511, -9.718324016553176, 1.706434487318867)
+ (4919509950.9951, -9.7297996286531, 1.7033248920937862)
+ (4929508950.89509, -9.74131035359173, 1.7002142076022055)
+ (4939507950.79508, -9.752856275962987, 1.6971024315726313)
+ (4949506950.69507, -9.764437480700776, 1.6939895617259904)